DeepOPF-SCDCOPF/pglib_opf_case30_ieee.py
# Copyright (c) 1996-2015 PSERC. All rights reserved.
# Use of this source code is governed by a BSD-style
# license that can be found in the LICENSE file.

"""Power flow data for 30 bus, 6 generator case.
"""

from numpy import array

def pglib_opf_case30_ieee():
#%%%%%%%%%%%%%%%%%%%%%%%%%%%%%%%%%%%%%%%%%%%%%%%%%%%%%%%%%%%%%%%%%%%%%%%%%%%
#%%%%                                                                  %%%%%
#%%%%    IEEE PES Power Grid Library - Optimal Power Flow - v19.05     %%%%%
#%%%%          (https://github.com/power-grid-lib/pglib-opf)           %%%%%
#%%%%               Benchmark Group - Typical Operations               %%%%%
#%%%%                         10 - May - 2019                          %%%%%
#%%%%                                                                  %%%%%
#%%%%%%%%%%%%%%%%%%%%%%%%%%%%%%%%%%%%%%%%%%%%%%%%%%%%%%%%%%%%%%%%%%%%%%%%%%%
#%
#%   Power flow data for IEEE 30 bus test case.
#%   This data was converted from IEEE Common Data Format
#%   (ieee30cdf.txt) on 20-Sep-2004 by cdf2matp, rev. 1.11
#%
#%   Converted from IEEE CDF file from:
#%       http://www.ee.washington.edu/research/pstca/
#%
#%   Copyright (c) 1999 by Richard D. Christie, University of Washington
#%   Electrical Engineering Licensed under the Creative Commons Attribution 4.0
#%   International license, http://creativecommons.org/licenses/by/4.0/
#%
#%   CDF Header:
#%   08/20/93 UW ARCHIVE           100.0  1961 W IEEE 30 Bus Test Case
#%
#    """
    ppc = {"version": '2'}

    ##-----  Power Flow Data  -----##
    ## system MVA base
    ppc["baseMVA"] = 100.0

  #flag for Security Constrained OPF(SCOPF)
    ppc["scopf"] = 1


    ## bus data
    # bus_i type Pd Qd Gs Bs area Vm Va baseKV zone Vmax Vmin
    ppc["bus"] = array([
        [1,3,0,0,0,0,1,1,0,132,1,1.06,0.94],
        [2,2,21.7,12.7,0,0,1,1,0,132,1,1.06,0.94],
        [3,1,2.4,1.2,0,0,1,1,0,132,1,1.06,0.94],
        [4,1,7.6,1.6,0,0,1,1,0,132,1,1.06,0.94],
        [5,2,94.2,19,0,0,1,1,0,132,1,1.06,0.94],
        [6,1,0,0,0,0,1,1,0,132,1,1.06,0.94],
        [7,1,22.8,10.9,0,0,1,1,0,132,1,1.06,0.94],
        [8,2,30,30,0,0,1,1,0,132,1,1.06,0.94],
        [9,1,0,0,0,0,1,1,0,1,1,1.06,0.94],
        [10,1,5.8,2,0,19,1,1,0,33,1,1.06,0.94],
        [11,2,0,0,0,0,1,1,0,11,1,1.06,0.94],
        [12,1,11.2,7.5,0,0,1,1,0,33,1,1.06,0.94],
        [13,2,0,0,0,0,1,1,0,11,1,1.06,0.94],
        [14,1,6.2,1.6,0,0,1,1,0,33,1,1.06,0.94],
        [15,1,8.2,2.5,0,0,1,1,0,33,1,1.06,0.94],
        [16,1,3.5,1.8,0,0,1,1,0,33,1,1.06,0.94],
        [17,1,9,5.8,0,0,1,1,0,33,1,1.06,0.94],
        [18,1,3.2,0.9,0,0,1,1,0,33,1,1.06,0.94],
        [19,1,9.5,3.4,0,0,1,1,0,33,1,1.06,0.94],
        [20,1,2.2,0.7,0,0,1,1,0,33,1,1.06,0.94],
        [21,1,17.5,11.2,0,0,1,1,0,33,1,1.06,0.94],
        [22,1,0,0,0,0,1,1,0,33,1,1.06,0.94],
        [23,1,3.2,1.6,0,0,1,1,0,33,1,1.06,0.94],
        [24,1,8.7,6.7,0,4.3,1,1,0,33,1,1.06,0.94],
        [25,1,0,0,0,0,1,1,0,33,1,1.06,0.94],
        [26,1,3.5,2.3,0,0,1,1,0,33,1,1.06,0.94],
        [27,1,0,0,0,0,1,1,0,33,1,1.06,0.94],
        [28,1,0,0,0,0,1,1,0,132,1,1.06,0.94],
        [29,1,2.4,0.9,0,0,1,1,0,33,1,1.06,0.94],
        [30,1,10.6,1.9,0,0,1,1,0,33,1,1.06,0.94],
    ])

    ## generator data
    # bus, Pg, Qg, Qmax, Qmin, Vg, mBase, status, Pmax, Pmin, Pc1, Pc2,
    # Qc1min, Qc1max, Qc2min, Qc2max, ramp_agc, ramp_10, ramp_30, ramp_q, apf
    ppc["gen"] = array([
        [1,135.5,5,10,0,1,100,1,271,0],
        [2,46,3,46,-40,1,100,1,92,0],
#        [5,0,0,40,-40,1,100,1,0,0],
#        [8,0,15,40,-10,1,100,1,0,0],
#        [11,0,9,24,-6,1,100,1,0,0],
#        [13,0,9,24,-6,1,100,1,0,0],
    ])

    ## branch data
    # fbus, tbus, r, x, b, rateA, rateB, rateC, ratio, angle, status, angmin, angmax
    ppc["branch"] = array([
        [1,2,0.0192,0.0575,0.0528,138,138,138,0,0,1,-30,30],
        [1,3,0.0452,0.1652,0.0408,152,152,152,0,0,1,-30,30],
        [2,4,0.057,0.1737,0.0368,139,139,139,0,0,1,-30,30],
        [3,4,0.0132,0.0379,0.0084,135,135,135,0,0,1,-30,30],
        [2,5,0.0472,0.1983,0.0418,144,144,144,0,0,1,-30,30],
        [2,6,0.0581,0.1763,0.0374,139,139,139,0,0,1,-30,30],
        [4,6,0.0119,0.0414,0.009,148,148,148,0,0,1,-30,30],
        [5,7,0.046,0.116,0.0204,127,127,127,0,0,1,-30,30],
        [6,7,0.0267,0.082,0.017,140,140,140,0,0,1,-30,30],
        [6,8,0.012,0.042,0.009,148,148,148,0,0,1,-30,30],
        [6,9,0,0.208,0,142,142,142,0,0,1,-30,30],#0.978
        [6,10,0,0.556,0,53,53,53,0,0,1,-30,30],#0.969
        [9,11,0,0.208,0,142,142,142,0,0,1,-30,30],#1
        [9,10,0,0.11,0,267,267,267,0,0,1,-30,30],#1
        [4,12,0,0.256,0,115,115,115,0,0,1,-30,30],#0.932
        [12,13,0,0.14,0,210,210,210,0,0,1,-30,30],#1
        [12,14,0.1231,0.2559,0,29,29,29,0,0,1,-30,30],
        [12,15,0.0662,0.1304,0,29,29,29,0,0,1,-30,30],
        [12,16,0.0945,0.1987,0,30,30,30,0,0,1,-30,30],
        [14,15,0.221,0.1997,0,20,20,20,0,0,1,-30,30],
        [16,17,0.0524,0.1923,0,38,38,38,0,0,1,-30,30],
        [15,18,0.1073,0.2185,0,29,29,29,0,0,1,-30,30],
        [18,19,0.0639,0.1292,0,29,29,29,0,0,1,-30,30],
        [19,20,0.034,0.068,0,29,29,29,0,0,1,-30,30],
        [10,20,0.0936,0.209,0,30,30,30,0,0,1,-30,30],
        [10,17,0.0324,0.0845,0,33,33,33,0,0,1,-30,30],
        [10,21,0.0348,0.0749,0,30,30,30,0,0,1,-30,30],
        [10,22,0.0727,0.1499,0,29,29,29,0,0,1,-30,30],
        [21,22,0.0116,0.0236,0,29,29,29,0,0,1,-30,30],
        [15,23,0.1,0.202,0,29,29,29,0,0,1,-30,30],
        [22,24,0.115,0.179,0,26,26,26,0,0,1,-30,30],
        [23,24,0.132,0.27,0,29,29,29,0,0,1,-30,30],
        [24,25,0.1885,0.3292,0,27,27,27,0,0,1,-30,30],
        [25,26,0.2544,0.38,0,25,25,25,0,0,1,-30,30],
        [25,27,0.1093,0.2087,0,28,28,28,0,0,1,-30,30],
        [28,27,0,0.396,0,75,75,75,0.968,0,1,-30,30],
        [27,29,0.2198,0.4153,0,28,28,28,0,0,1,-30,30],
        [27,30,0.3202,0.6027,0,28,28,28,0,0,1,-30,30],
        [29,30,0.2399,0.4533,0,28,28,28,0,0,1,-30,30],
        [8,28,0.0636,0.2,0.0428,140,140,140,0,0,1,-30,30],
        [6,28,0.0169,0.0599,0.013,149,149,149,0,0,1,-30,30],
    ])

    ## generator cost data
    # 1 startup shutdown n x1 y1 ... xn yn
    # 2 startup shutdown n c(n-1) ... c0
    ppc["gencost"] = array([
        #pglib
#        [2,0,0,3,0,18.421528,0],
#        [2,0,0,3,0,52.182254,0],
#        [2,0,0,3,0,0,0],
#        [2,0,0,3,0,0,0],
#        [2,0,0,3,0,0,0],
#        [2,0,0,3,0,0,0],
        #matpower7.0
        [2, 0, 0, 3, 0.02, 2, 0],
        [2, 0, 0, 3, 0.0175, 1.75, 0],
#        [2, 0, 0, 3, 0.025, 3, 0],
#        [2, 0, 0, 3, 0.0625, 1, 0],
#        [2, 0, 0, 3, 0.025, 3, 0],
#        [2, 0, 0, 3, 0.00834, 3.25, 0],        
    ])

    return ppc
